12
Lattice="20.0 0.0 0.0 0.0 20.0 0.0 0.0 0.0 20.0" Properties=species:S:1:pos:R:3:velocities:R:3:displacements:R:3:update_velocities:R:3 timestep=1.0 pbc="T T T"
C        4.90766000      13.05740000       7.98097000      -0.00183652       0.00518094      -0.00067525      -0.00018000       0.00052000      -0.00007000      -0.00167145       0.00511087      -0.00058628
C        5.56424000      13.01301000       9.22339000      -0.00531778      -0.00377200       0.00383827      -0.00053000      -0.00037000       0.00039000      -0.00534653      -0.00378032       0.00402761
C        6.78019000      13.66309000       9.41779000       0.00545025       0.00556668       0.00259713       0.00055000       0.00056000       0.00025000       0.00546263       0.00566198       0.00232529
C        7.41911000      14.31518000       8.28802000       0.00016662      -0.00193660      -0.00611002       0.00001000      -0.00019000      -0.00061000       0.00010453      -0.00197875      -0.00608507
C        6.81718000      14.36609000       6.99478000       0.00543885       0.00112314      -0.00019650       0.00054000       0.00010000      -0.00001000       0.00531248       0.00099171      -0.00004119
C        5.55768000      13.67964000       6.87837000       0.00140419       0.00509595      -0.00560425       0.00014000       0.00051000      -0.00056000       0.00144869       0.00516282      -0.00562742
H        3.98848000      12.50764000       7.85045000      -0.00782877      -0.02468990       0.03573990      -0.00079000      -0.00247000       0.00357000      -0.00791824      -0.02458210       0.03628710
H        5.12116000      12.50283000      10.09352000       0.04373980      -0.01477470       0.02443320       0.00438000      -0.00146000       0.00241000       0.04380940      -0.01453070       0.02336800
H        7.26087000      13.68301000      10.34392000       0.01430750      -0.01224590       0.01021660       0.00145000      -0.00123000       0.00108000       0.01470920      -0.01254910       0.01100910
H        8.34802000      14.85039000       8.46390000      -0.01085380       0.00677898      -0.00673243      -0.00109000       0.00067000      -0.00067000      -0.01119400       0.00704600      -0.00688174
H        7.22256000      14.93568000       6.17850000       0.00243246      -0.00981954      -0.00351261       0.00026000      -0.00099000      -0.00036000       0.00262495      -0.00995873      -0.00349846
H        5.18968000      13.55570000       5.85855000      -0.00611632      -0.01090350      -0.00619543      -0.00063000      -0.00107000      -0.00060000      -0.00655367      -0.01050290      -0.00577564
12
Lattice="20.0 0.0 0.0 0.0 20.0 0.0 0.0 0.0 20.0" Properties=species:S:1:pos:R:3:velocities:R:3:displacements:R:3:update_velocities:R:3 timestep=1.0 pbc="T T T"
C        4.90748000      13.05792000       7.98090000      -0.00167145       0.00511087      -0.00058628      -0.00016000       0.00051000      -0.00006000      -0.00164563       0.00513973      -0.00060210
C        5.56371000      13.01264000       9.22378000      -0.00534653      -0.00378032       0.00402761      -0.00054000      -0.00038000       0.00040000      -0.00543067      -0.00371783       0.00412552
C        6.78074000      13.66365000       9.41804000       0.00546263       0.00566198       0.00232529       0.00055000       0.00057000       0.00022000       0.00539188       0.00574686       0.00210550
C        7.41912000      14.31499000       8.28741000       0.00010453      -0.00197875      -0.00608507       0.00001000      -0.00020000      -0.00060000       0.00008886      -0.00209478      -0.00608505
C        6.81772000      14.36619000       6.99477000       0.00531248       0.00099171      -0.00004119       0.00052000       0.00010000       0.00000000       0.00517602       0.00082551       0.00013945
C        5.55782000      13.68015000       6.87781000       0.00144869       0.00516282      -0.00562742       0.00015000       0.00051000      -0.00057000       0.00152700       0.00516694      -0.00554012
H        3.98769000      12.50517000       7.85402000      -0.00791824      -0.02458210       0.03628710      -0.00079000      -0.00245000       0.00363000      -0.00781230      -0.02493920       0.03578480
H        5.12554000      12.50137000      10.09593000       0.04380940      -0.01453070       0.02336800       0.00438000      -0.00144000       0.00231000       0.04389060      -0.01437650       0.02260930
H        7.26232000      13.68178000      10.34500000       0.01470920      -0.01254910       0.01100910       0.00149000      -0.00126000       0.00115000       0.01508550      -0.01261090       0.01199060
H        8.34693000      14.85106000       8.46323000      -0.01119400       0.00704600      -0.00688174      -0.00112000       0.00070000      -0.00070000      -0.01143300       0.00714849      -0.00708253
H        7.22282000      14.93469000       6.17814000       0.00262495      -0.00995873      -0.00349846       0.00028000      -0.00100000      -0.00037000       0.00296845      -0.01042280      -0.00349713
H        5.18905000      13.55463000       5.85795000      -0.00655367      -0.01050290      -0.00577564      -0.00067000      -0.00104000      -0.00056000      -0.00671994      -0.01015490      -0.00508065
12
Lattice="20.0 0.0 0.0 0.0 20.0 0.0 0.0 0.0 20.0" Properties=species:S:1:pos:R:3:velocities:R:3:displacements:R:3:update_velocities:R:3 timestep=1.0 pbc="T T T"
C        4.90732000      13.05843000       7.98084000      -0.00164563       0.00513973      -0.00060210      -0.00017000       0.00051000      -0.00006000      -0.00155363       0.00513721      -0.00059161
C        5.56317000      13.01226000       9.22418000      -0.00543067      -0.00371783       0.00412552      -0.00055000      -0.00038000       0.00042000      -0.00559512      -0.00363978       0.00413466
C        6.78129000      13.66422000       9.41826000       0.00539188       0.00574686       0.00210550       0.00054000       0.00058000       0.00020000       0.00544486       0.00577325       0.00181511
C        7.41913000      14.31479000       8.28681000       0.00008886      -0.00209478      -0.00608505       0.00001000      -0.00021000      -0.00061000       0.00004215      -0.00206821      -0.00603460
C        6.81824000      14.36629000       6.99477000       0.00517602       0.00082551       0.00013945       0.00051000       0.00008000       0.00002000       0.00510381       0.00070973       0.00022134
C        5.55797000      13.68066000       6.87724000       0.00152700       0.00516694      -0.00554012       0.00016000       0.00052000      -0.00056000       0.00164902       0.00527020      -0.00561373
H        3.98690000      12.50272000       7.85765000      -0.00781230      -0.02493920       0.03578480      -0.00078000      -0.00249000       0.00357000      -0.00784113      -0.02459730       0.03581340
H        5.12992000      12.49993000      10.09824000       0.04389060      -0.01437650       0.02260930       0.00439000      -0.00143000       0.00223000       0.04383510      -0.01409180       0.02183010
H        7.26381000      13.68052000      10.34615000       0.01508550      -0.01261090       0.01199060       0.00153000      -0.00126000       0.00125000       0.01541130      -0.01283800       0.01286800
H        8.34581000      14.85176000       8.46253000      -0.01143300       0.00714849      -0.00708253      -0.00115000       0.00070000      -0.00071000      -0.01155960       0.00677383      -0.00743842
H        7.22310000      14.93369000       6.17777000       0.00296845      -0.01042280      -0.00349713       0.00031000      -0.00105000      -0.00036000       0.00353731      -0.01078000      -0.00363857
H        5.18838000      13.55359000       5.85739000      -0.00671994      -0.01015490      -0.00508065      -0.00069000      -0.00100000      -0.00048000      -0.00679272      -0.01033140      -0.00522194
12
Lattice="20.0 0.0 0.0 0.0 20.0 0.0 0.0 0.0 20.0" Properties=species:S:1:pos:R:3:velocities:R:3:displacements:R:3:update_velocities:R:3 timestep=1.0 pbc="T T T"
C        4.90715000      13.05894000       7.98078000      -0.00155363       0.00513721      -0.00059161      -0.00015000       0.00051000      -0.00006000      -0.00145697       0.00511780      -0.00052832
C        5.56262000      13.01188000       9.22460000      -0.00559512      -0.00363978       0.00413466      -0.00056000      -0.00036000       0.00042000      -0.00560361      -0.00379878       0.00422029
C        6.78183000      13.66480000       9.41846000       0.00544486       0.00577325       0.00181511       0.00055000       0.00058000       0.00017000       0.00551466       0.00573220       0.00148219
C        7.41914000      14.31458000       8.28620000       0.00004215      -0.00206821      -0.00603460       0.00000000      -0.00020000      -0.00060000       0.00004923      -0.00207303      -0.00599959
C        6.81875000      14.36637000       6.99479000       0.00510381       0.00070973       0.00022134       0.00051000       0.00006000       0.00003000       0.00491059       0.00054835       0.00041935
C        5.55813000      13.68118000       6.87668000       0.00164902       0.00527020      -0.00561373       0.00017000       0.00053000      -0.00056000       0.00149693       0.00529552      -0.00570634
H        3.98612000      12.50023000       7.86122000      -0.00784113      -0.02459730       0.03581340      -0.00079000      -0.00245000       0.00358000      -0.00794173      -0.02434120       0.03566760
H        5.13431000      12.49850000      10.10047000       0.04383510      -0.01409180       0.02183010       0.00439000      -0.00140000       0.00215000       0.04373640      -0.01393540       0.02126810
H        7.26534000      13.67926000      10.34740000       0.01541130      -0.01283800       0.01286800       0.00156000      -0.00129000       0.00133000       0.01579890      -0.01293400       0.01392060
H        8.34466000      14.85246000       8.46182000      -0.01155960       0.00677383      -0.00743842      -0.00116000       0.00067000      -0.00075000      -0.01157390       0.00653163      -0.00739068
H        7.22341000      14.93264000       6.17741000       0.00353731      -0.01078000      -0.00363857       0.00038000      -0.00109000      -0.00037000       0.00405509      -0.01078040      -0.00381353
H        5.18769000      13.55259000       5.85691000      -0.00679272      -0.01033140      -0.00522194      -0.00070000      -0.00101000      -0.00050000      -0.00730275      -0.01018160      -0.00486493
